
No compatibility mode selected!


Circuit: * /home/vinaykumarg936/documents/vinay_jk/vinay_jk.cir

Reducing trtol to 1 for xspice 'A' devices
Doing analysis at TEMP = 27.000000 and TNOM = 27.000000

Warning: v3: no DC value, transient time 0 value used
Warning: v2: no DC value, transient time 0 value used
Warning: v1: no DC value, transient time 0 value used
=============vinay_jk : New Iteration===========
Instance : 0

Inside foo before eval.....
j=0
k=0
clk=0
q=0
qb=0

Inside foo after eval.....
j=0
k=0
clk=0
q=0
qb=1
=============vinay_jk : New Iteration===========
Instance : 0

Inside foo before eval.....
j=0
k=0
clk=0
q=0
qb=1

Inside foo after eval.....
j=0
k=0
clk=0
q=0
qb=1
=============vinay_jk : New Iteration===========
Instance : 0

Inside foo before eval.....
j=0
k=0
clk=0
q=0
qb=1

Inside foo after eval.....
j=1
k=1
clk=1
q=1
qb=0

Initial Transient Solution
--------------------------

Node                                   Voltage
----                                   -------
j                                            5
k                                            5
clk                                          5
q                                            5
q_bar                                        0
v3#branch                                    0
v2#branch                                    0
v1#branch                                    0
a3#branch_1_0                                0
a3#branch_1_1                                0

=============vinay_jk : New Iteration===========
Instance : 0

Inside foo before eval.....
j=1
k=1
clk=1
q=1
qb=0

Inside foo after eval.....
j=0
k=0
clk=0
q=1
qb=0
=============vinay_jk : New Iteration===========
Instance : 0

Inside foo before eval.....
j=0
k=0
clk=0
q=1
qb=0

Inside foo after eval.....
j=0
k=0
clk=1
q=1
qb=0
=============vinay_jk : New Iteration===========
Instance : 0

Inside foo before eval.....
j=0
k=0
clk=1
q=1
qb=0

Inside foo after eval.....
j=0
k=0
clk=1
q=1
qb=0
=============vinay_jk : New Iteration===========
Instance : 0

Inside foo before eval.....
j=0
k=0
clk=1
q=1
qb=0

Inside foo after eval.....
j=0
k=0
clk=1
q=1
qb=0
=============vinay_jk : New Iteration===========
Instance : 0

Inside foo before eval.....
j=0
k=0
clk=1
q=1
qb=0

Inside foo after eval.....
j=0
k=0
clk=0
q=1
qb=0
=============vinay_jk : New Iteration===========
Instance : 0

Inside foo before eval.....
j=0
k=0
clk=0
q=1
qb=0

Inside foo after eval.....
j=0
k=0
clk=1
q=1
qb=0
=============vinay_jk : New Iteration===========
Instance : 0

Inside foo before eval.....
j=0
k=0
clk=1
q=1
qb=0

Inside foo after eval.....
j=0
k=0
clk=1
q=1
qb=0
=============vinay_jk : New Iteration===========
Instance : 0

Inside foo before eval.....
j=0
k=0
clk=1
q=1
qb=0

Inside foo after eval.....
j=0
k=0
clk=1
q=1
qb=0
=============vinay_jk : New Iteration===========
Instance : 0

Inside foo before eval.....
j=0
k=0
clk=1
q=1
qb=0

Inside foo after eval.....
j=0
k=0
clk=0
q=1
qb=0
=============vinay_jk : New Iteration===========
Instance : 0

Inside foo before eval.....
j=0
k=0
clk=0
q=1
qb=0

Inside foo after eval.....
j=0
k=0
clk=1
q=1
qb=0
=============vinay_jk : New Iteration===========
Instance : 0

Inside foo before eval.....
j=0
k=0
clk=1
q=1
qb=0

Inside foo after eval.....
j=0
k=0
clk=1
q=1
qb=0
=============vinay_jk : New Iteration===========
Instance : 0

Inside foo before eval.....
j=0
k=0
clk=1
q=1
qb=0

Inside foo after eval.....
j=0
k=0
clk=1
q=1
qb=0
=============vinay_jk : New Iteration===========
Instance : 0

Inside foo before eval.....
j=0
k=0
clk=1
q=1
qb=0

Inside foo after eval.....
j=0
k=0
clk=0
q=1
qb=0
=============vinay_jk : New Iteration===========
Instance : 0

Inside foo before eval.....
j=0
k=0
clk=0
q=1
qb=0

Inside foo after eval.....
j=0
k=0
clk=1
q=1
qb=0
=============vinay_jk : New Iteration===========
Instance : 0

Inside foo before eval.....
j=0
k=0
clk=1
q=1
qb=0

Inside foo after eval.....
j=0
k=0
clk=1
q=1
qb=0
=============vinay_jk : New Iteration===========
Instance : 0

Inside foo before eval.....
j=0
k=0
clk=1
q=1
qb=0

Inside foo after eval.....
j=0
k=0
clk=1
q=1
qb=0
=============vinay_jk : New Iteration===========
Instance : 0

Inside foo before eval.....
j=0
k=0
clk=1
q=1
qb=0

Inside foo after eval.....
j=0
k=0
clk=0
q=1
qb=0
=============vinay_jk : New Iteration===========
Instance : 0

Inside foo before eval.....
j=0
k=0
clk=0
q=1
qb=0

Inside foo after eval.....
j=0
k=0
clk=1
q=1
qb=0
=============vinay_jk : New Iteration===========
Instance : 0

Inside foo before eval.....
j=0
k=0
clk=1
q=1
qb=0

Inside foo after eval.....
j=0
k=0
clk=1
q=1
qb=0
=============vinay_jk : New Iteration===========
Instance : 0

Inside foo before eval.....
j=0
k=0
clk=1
q=1
qb=0

Inside foo after eval.....
j=0
k=0
clk=1
q=1
qb=0
=============vinay_jk : New Iteration===========
Instance : 0

Inside foo before eval.....
j=0
k=0
clk=1
q=1
qb=0

Inside foo after eval.....
j=0
k=0
clk=0
q=1
qb=0
=============vinay_jk : New Iteration===========
Instance : 0

Inside foo before eval.....
j=0
k=0
clk=0
q=1
qb=0

Inside foo after eval.....
j=0
k=1
clk=0
q=1
qb=0
=============vinay_jk : New Iteration===========
Instance : 0

Inside foo before eval.....
j=0
k=1
clk=0
q=1
qb=0

Inside foo after eval.....
j=0
k=1
clk=0
q=1
qb=0
=============vinay_jk : New Iteration===========
Instance : 0

Inside foo before eval.....
j=0
k=1
clk=0
q=1
qb=0

Inside foo after eval.....
j=0
k=1
clk=1
q=0
qb=1
=============vinay_jk : New Iteration===========
Instance : 0

Inside foo before eval.....
j=0
k=1
clk=1
q=0
qb=1

Inside foo after eval.....
j=0
k=1
clk=1
q=0
qb=1
=============vinay_jk : New Iteration===========
Instance : 0

Inside foo before eval.....
j=0
k=1
clk=1
q=0
qb=1

Inside foo after eval.....
j=0
k=1
clk=1
q=0
qb=1
=============vinay_jk : New Iteration===========
Instance : 0

Inside foo before eval.....
j=0
k=1
clk=1
q=0
qb=1

Inside foo after eval.....
j=0
k=1
clk=0
q=0
qb=1
=============vinay_jk : New Iteration===========
Instance : 0

Inside foo before eval.....
j=0
k=1
clk=0
q=0
qb=1

Inside foo after eval.....
j=0
k=1
clk=1
q=0
qb=1
=============vinay_jk : New Iteration===========
Instance : 0

Inside foo before eval.....
j=0
k=1
clk=1
q=0
qb=1

Inside foo after eval.....
j=0
k=1
clk=1
q=0
qb=1
=============vinay_jk : New Iteration===========
Instance : 0

Inside foo before eval.....
j=0
k=1
clk=1
q=0
qb=1

Inside foo after eval.....
j=0
k=1
clk=1
q=0
qb=1
=============vinay_jk : New Iteration===========
Instance : 0

Inside foo before eval.....
j=0
k=1
clk=1
q=0
qb=1

Inside foo after eval.....
j=0
k=1
clk=0
q=0
qb=1
=============vinay_jk : New Iteration===========
Instance : 0

Inside foo before eval.....
j=0
k=1
clk=0
q=0
qb=1

Inside foo after eval.....
j=0
k=1
clk=1
q=0
qb=1
=============vinay_jk : New Iteration===========
Instance : 0

Inside foo before eval.....
j=0
k=1
clk=1
q=0
qb=1

Inside foo after eval.....
j=0
k=1
clk=1
q=0
qb=1
=============vinay_jk : New Iteration===========
Instance : 0

Inside foo before eval.....
j=0
k=1
clk=1
q=0
qb=1

Inside foo after eval.....
j=0
k=1
clk=1
q=0
qb=1
=============vinay_jk : New Iteration===========
Instance : 0

Inside foo before eval.....
j=0
k=1
clk=1
q=0
qb=1

Inside foo after eval.....
j=0
k=1
clk=0
q=0
qb=1
=============vinay_jk : New Iteration===========
Instance : 0

Inside foo before eval.....
j=0
k=1
clk=0
q=0
qb=1

Inside foo after eval.....
j=0
k=1
clk=1
q=0
qb=1
=============vinay_jk : New Iteration===========
Instance : 0

Inside foo before eval.....
j=0
k=1
clk=1
q=0
qb=1

Inside foo after eval.....
j=0
k=1
clk=1
q=0
qb=1
=============vinay_jk : New Iteration===========
Instance : 0

Inside foo before eval.....
j=0
k=1
clk=1
q=0
qb=1

Inside foo after eval.....
j=0
k=1
clk=1
q=0
qb=1
=============vinay_jk : New Iteration===========
Instance : 0

Inside foo before eval.....
j=0
k=1
clk=1
q=0
qb=1

Inside foo after eval.....
j=0
k=1
clk=0
q=0
qb=1
=============vinay_jk : New Iteration===========
Instance : 0

Inside foo before eval.....
j=0
k=1
clk=0
q=0
qb=1

Inside foo after eval.....
j=0
k=1
clk=1
q=0
qb=1
=============vinay_jk : New Iteration===========
Instance : 0

Inside foo before eval.....
j=0
k=1
clk=1
q=0
qb=1

Inside foo after eval.....
j=0
k=1
clk=1
q=0
qb=1
=============vinay_jk : New Iteration===========
Instance : 0

Inside foo before eval.....
j=0
k=1
clk=1
q=0
qb=1

Inside foo after eval.....
j=0
k=1
clk=1
q=0
qb=1
=============vinay_jk : New Iteration===========
Instance : 0

Inside foo before eval.....
j=0
k=1
clk=1
q=0
qb=1

Inside foo after eval.....
j=0
k=0
clk=0
q=0
qb=1
=============vinay_jk : New Iteration===========
Instance : 0

Inside foo before eval.....
j=0
k=0
clk=0
q=0
qb=1

Inside foo after eval.....
j=1
k=0
clk=0
q=0
qb=1
=============vinay_jk : New Iteration===========
Instance : 0

Inside foo before eval.....
j=1
k=0
clk=0
q=0
qb=1

Inside foo after eval.....
j=1
k=0
clk=0
q=0
qb=1
=============vinay_jk : New Iteration===========
Instance : 0

Inside foo before eval.....
j=1
k=0
clk=0
q=0
qb=1

Inside foo after eval.....
j=1
k=0
clk=1
q=1
qb=0
=============vinay_jk : New Iteration===========
Instance : 0

Inside foo before eval.....
j=1
k=0
clk=1
q=1
qb=0

Inside foo after eval.....
j=1
k=0
clk=1
q=1
qb=0
=============vinay_jk : New Iteration===========
Instance : 0

Inside foo before eval.....
j=1
k=0
clk=1
q=1
qb=0

Inside foo after eval.....
j=1
k=0
clk=1
q=1
qb=0
=============vinay_jk : New Iteration===========
Instance : 0

Inside foo before eval.....
j=1
k=0
clk=1
q=1
qb=0

Inside foo after eval.....
j=1
k=0
clk=0
q=1
qb=0
=============vinay_jk : New Iteration===========
Instance : 0

Inside foo before eval.....
j=1
k=0
clk=0
q=1
qb=0

Inside foo after eval.....
j=1
k=0
clk=1
q=1
qb=0
=============vinay_jk : New Iteration===========
Instance : 0

Inside foo before eval.....
j=1
k=0
clk=1
q=1
qb=0

Inside foo after eval.....
j=1
k=0
clk=1
q=1
qb=0
=============vinay_jk : New Iteration===========
Instance : 0

Inside foo before eval.....
j=1
k=0
clk=1
q=1
qb=0

Inside foo after eval.....
j=1
k=0
clk=1
q=1
qb=0
=============vinay_jk : New Iteration===========
Instance : 0

Inside foo before eval.....
j=1
k=0
clk=1
q=1
qb=0

Inside foo after eval.....
j=1
k=0
clk=0
q=1
qb=0
=============vinay_jk : New Iteration===========
Instance : 0

Inside foo before eval.....
j=1
k=0
clk=0
q=1
qb=0

Inside foo after eval.....
j=1
k=0
clk=1
q=1
qb=0
=============vinay_jk : New Iteration===========
Instance : 0

Inside foo before eval.....
j=1
k=0
clk=1
q=1
qb=0

Inside foo after eval.....
j=1
k=0
clk=1
q=1
qb=0
=============vinay_jk : New Iteration===========
Instance : 0

Inside foo before eval.....
j=1
k=0
clk=1
q=1
qb=0

Inside foo after eval.....
j=1
k=0
clk=1
q=1
qb=0
=============vinay_jk : New Iteration===========
Instance : 0

Inside foo before eval.....
j=1
k=0
clk=1
q=1
qb=0

Inside foo after eval.....
j=1
k=0
clk=0
q=1
qb=0
=============vinay_jk : New Iteration===========
Instance : 0

Inside foo before eval.....
j=1
k=0
clk=0
q=1
qb=0

Inside foo after eval.....
j=1
k=0
clk=1
q=1
qb=0
=============vinay_jk : New Iteration===========
Instance : 0

Inside foo before eval.....
j=1
k=0
clk=1
q=1
qb=0

Inside foo after eval.....
j=1
k=0
clk=1
q=1
qb=0
=============vinay_jk : New Iteration===========
Instance : 0

Inside foo before eval.....
j=1
k=0
clk=1
q=1
qb=0

Inside foo after eval.....
j=1
k=0
clk=1
q=1
qb=0
=============vinay_jk : New Iteration===========
Instance : 0

Inside foo before eval.....
j=1
k=0
clk=1
q=1
qb=0

Inside foo after eval.....
j=1
k=0
clk=0
q=1
qb=0
=============vinay_jk : New Iteration===========
Instance : 0

Inside foo before eval.....
j=1
k=0
clk=0
q=1
qb=0

Inside foo after eval.....
j=1
k=0
clk=1
q=1
qb=0
=============vinay_jk : New Iteration===========
Instance : 0

Inside foo before eval.....
j=1
k=0
clk=1
q=1
qb=0

Inside foo after eval.....
j=1
k=0
clk=1
q=1
qb=0
=============vinay_jk : New Iteration===========
Instance : 0

Inside foo before eval.....
j=1
k=0
clk=1
q=1
qb=0

Inside foo after eval.....
j=1
k=0
clk=1
q=1
qb=0
=============vinay_jk : New Iteration===========
Instance : 0

Inside foo before eval.....
j=1
k=0
clk=1
q=1
qb=0

Inside foo after eval.....
j=1
k=0
clk=0
q=1
qb=0
=============vinay_jk : New Iteration===========
Instance : 0

Inside foo before eval.....
j=1
k=0
clk=0
q=1
qb=0

Inside foo after eval.....
j=1
k=1
clk=0
q=1
qb=0
=============vinay_jk : New Iteration===========
Instance : 0

Inside foo before eval.....
j=1
k=1
clk=0
q=1
qb=0

Inside foo after eval.....
j=1
k=1
clk=0
q=1
qb=0
=============vinay_jk : New Iteration===========
Instance : 0

Inside foo before eval.....
j=1
k=1
clk=0
q=1
qb=0

Inside foo after eval.....
j=1
k=1
clk=1
q=0
qb=1
=============vinay_jk : New Iteration===========
Instance : 0

Inside foo before eval.....
j=1
k=1
clk=1
q=0
qb=1

Inside foo after eval.....
j=1
k=1
clk=1
q=0
qb=1
=============vinay_jk : New Iteration===========
Instance : 0

Inside foo before eval.....
j=1
k=1
clk=1
q=0
qb=1

Inside foo after eval.....
j=1
k=1
clk=1
q=0
qb=1
=============vinay_jk : New Iteration===========
Instance : 0

Inside foo before eval.....
j=1
k=1
clk=1
q=0
qb=1

Inside foo after eval.....
j=1
k=1
clk=0
q=0
qb=1
=============vinay_jk : New Iteration===========
Instance : 0

Inside foo before eval.....
j=1
k=1
clk=0
q=0
qb=1

Inside foo after eval.....
j=1
k=1
clk=1
q=1
qb=0
=============vinay_jk : New Iteration===========
Instance : 0

Inside foo before eval.....
j=1
k=1
clk=1
q=1
qb=0

Inside foo after eval.....
j=1
k=1
clk=1
q=1
qb=0
=============vinay_jk : New Iteration===========
Instance : 0

Inside foo before eval.....
j=1
k=1
clk=1
q=1
qb=0

Inside foo after eval.....
j=1
k=1
clk=1
q=1
qb=0
=============vinay_jk : New Iteration===========
Instance : 0

Inside foo before eval.....
j=1
k=1
clk=1
q=1
qb=0

Inside foo after eval.....
j=1
k=1
clk=0
q=1
qb=0
=============vinay_jk : New Iteration===========
Instance : 0

Inside foo before eval.....
j=1
k=1
clk=0
q=1
qb=0

Inside foo after eval.....
j=1
k=1
clk=1
q=0
qb=1
=============vinay_jk : New Iteration===========
Instance : 0

Inside foo before eval.....
j=1
k=1
clk=1
q=0
qb=1

Inside foo after eval.....
j=1
k=1
clk=1
q=0
qb=1
=============vinay_jk : New Iteration===========
Instance : 0

Inside foo before eval.....
j=1
k=1
clk=1
q=0
qb=1

Inside foo after eval.....
j=1
k=1
clk=1
q=0
qb=1
=============vinay_jk : New Iteration===========
Instance : 0

Inside foo before eval.....
j=1
k=1
clk=1
q=0
qb=1

Inside foo after eval.....
j=1
k=1
clk=0
q=0
qb=1
=============vinay_jk : New Iteration===========
Instance : 0

Inside foo before eval.....
j=1
k=1
clk=0
q=0
qb=1

Inside foo after eval.....
j=1
k=1
clk=1
q=1
qb=0
=============vinay_jk : New Iteration===========
Instance : 0

Inside foo before eval.....
j=1
k=1
clk=1
q=1
qb=0

Inside foo after eval.....
j=1
k=1
clk=1
q=1
qb=0
=============vinay_jk : New Iteration===========
Instance : 0

Inside foo before eval.....
j=1
k=1
clk=1
q=1
qb=0

Inside foo after eval.....
j=1
k=1
clk=1
q=1
qb=0
=============vinay_jk : New Iteration===========
Instance : 0

Inside foo before eval.....
j=1
k=1
clk=1
q=1
qb=0

Inside foo after eval.....
j=1
k=1
clk=0
q=1
qb=0
=============vinay_jk : New Iteration===========
Instance : 0

Inside foo before eval.....
j=1
k=1
clk=0
q=1
qb=0

Inside foo after eval.....
j=1
k=1
clk=1
q=0
qb=1
=============vinay_jk : New Iteration===========
Instance : 0

Inside foo before eval.....
j=1
k=1
clk=1
q=0
qb=1

Inside foo after eval.....
j=1
k=1
clk=1
q=0
qb=1

No. of Data Rows : 1171
ERROR: (internal)  This operation is not defined for display type PrinterOnly.
Can't open viewport for graphics.
binary raw file "/home/vinaykumarg936/Documents/vinay_jk/vinay_jk.raw"
Reducing trtol to 1 for xspice 'A' devices
Doing analysis at TEMP = 27.000000 and TNOM = 27.000000

Warning: v3: no DC value, transient time 0 value used
Warning: v2: no DC value, transient time 0 value used
Warning: v1: no DC value, transient time 0 value used
No. of Data Columns : 11     
=============vinay_jk : New Iteration===========
Instance : 1

Inside foo before eval.....
j=0
k=0
clk=0
q=0
qb=0

Inside foo after eval.....
j=0
k=0
clk=0
q=0
qb=1
=============vinay_jk : New Iteration===========
Instance : 1

Inside foo before eval.....
j=0
k=0
clk=0
q=0
qb=1

Inside foo after eval.....
j=0
k=0
clk=0
q=0
qb=1
=============vinay_jk : New Iteration===========
Instance : 1

Inside foo before eval.....
j=0
k=0
clk=0
q=0
qb=1

Inside foo after eval.....
j=1
k=1
clk=1
q=1
qb=0

Initial Transient Solution
--------------------------

Node                                   Voltage
----                                   -------
j                                            5
k                                            5
clk                                          5
q                                            5
q_bar                                        0
v3#branch                                    0
v2#branch                                    0
v1#branch                                    0
a3#branch_1_0                                0
a3#branch_1_1                                0

=============vinay_jk : New Iteration===========
Instance : 1

Inside foo before eval.....
j=1
k=1
clk=1
q=1
qb=0

Inside foo after eval.....
j=0
k=0
clk=0
q=1
qb=0
=============vinay_jk : New Iteration===========
Instance : 1

Inside foo before eval.....
j=0
k=0
clk=0
q=1
qb=0

Inside foo after eval.....
j=0
k=0
clk=1
q=1
qb=0
=============vinay_jk : New Iteration===========
Instance : 1

Inside foo before eval.....
j=0
k=0
clk=1
q=1
qb=0

Inside foo after eval.....
j=0
k=0
clk=1
q=1
qb=0
=============vinay_jk : New Iteration===========
Instance : 1

Inside foo before eval.....
j=0
k=0
clk=1
q=1
qb=0

Inside foo after eval.....
j=0
k=0
clk=1
q=1
qb=0
=============vinay_jk : New Iteration===========
Instance : 1

Inside foo before eval.....
j=0
k=0
clk=1
q=1
qb=0

Inside foo after eval.....
j=0
k=0
clk=0
q=1
qb=0
=============vinay_jk : New Iteration===========
Instance : 1

Inside foo before eval.....
j=0
k=0
clk=0
q=1
qb=0

Inside foo after eval.....
j=0
k=0
clk=1
q=1
qb=0
=============vinay_jk : New Iteration===========
Instance : 1

Inside foo before eval.....
j=0
k=0
clk=1
q=1
qb=0

Inside foo after eval.....
j=0
k=0
clk=1
q=1
qb=0
=============vinay_jk : New Iteration===========
Instance : 1

Inside foo before eval.....
j=0
k=0
clk=1
q=1
qb=0

Inside foo after eval.....
j=0
k=0
clk=1
q=1
qb=0
=============vinay_jk : New Iteration===========
Instance : 1

Inside foo before eval.....
j=0
k=0
clk=1
q=1
qb=0

Inside foo after eval.....
j=0
k=0
clk=0
q=1
qb=0
=============vinay_jk : New Iteration===========
Instance : 1

Inside foo before eval.....
j=0
k=0
clk=0
q=1
qb=0

Inside foo after eval.....
j=0
k=0
clk=1
q=1
qb=0
=============vinay_jk : New Iteration===========
Instance : 1

Inside foo before eval.....
j=0
k=0
clk=1
q=1
qb=0

Inside foo after eval.....
j=0
k=0
clk=1
q=1
qb=0
=============vinay_jk : New Iteration===========
Instance : 1

Inside foo before eval.....
j=0
k=0
clk=1
q=1
qb=0

Inside foo after eval.....
j=0
k=0
clk=1
q=1
qb=0
=============vinay_jk : New Iteration===========
Instance : 1

Inside foo before eval.....
j=0
k=0
clk=1
q=1
qb=0

Inside foo after eval.....
j=0
k=0
clk=0
q=1
qb=0
=============vinay_jk : New Iteration===========
Instance : 1

Inside foo before eval.....
j=0
k=0
clk=0
q=1
qb=0

Inside foo after eval.....
j=0
k=0
clk=1
q=1
qb=0
=============vinay_jk : New Iteration===========
Instance : 1

Inside foo before eval.....
j=0
k=0
clk=1
q=1
qb=0

Inside foo after eval.....
j=0
k=0
clk=1
q=1
qb=0
=============vinay_jk : New Iteration===========
Instance : 1

Inside foo before eval.....
j=0
k=0
clk=1
q=1
qb=0

Inside foo after eval.....
j=0
k=0
clk=1
q=1
qb=0
=============vinay_jk : New Iteration===========
Instance : 1

Inside foo before eval.....
j=0
k=0
clk=1
q=1
qb=0

Inside foo after eval.....
j=0
k=0
clk=0
q=1
qb=0
=============vinay_jk : New Iteration===========
Instance : 1

Inside foo before eval.....
j=0
k=0
clk=0
q=1
qb=0

Inside foo after eval.....
j=0
k=0
clk=1
q=1
qb=0
=============vinay_jk : New Iteration===========
Instance : 1

Inside foo before eval.....
j=0
k=0
clk=1
q=1
qb=0

Inside foo after eval.....
j=0
k=0
clk=1
q=1
qb=0
=============vinay_jk : New Iteration===========
Instance : 1

Inside foo before eval.....
j=0
k=0
clk=1
q=1
qb=0

Inside foo after eval.....
j=0
k=0
clk=1
q=1
qb=0
=============vinay_jk : New Iteration===========
Instance : 1

Inside foo before eval.....
j=0
k=0
clk=1
q=1
qb=0

Inside foo after eval.....
j=0
k=0
clk=0
q=1
qb=0
=============vinay_jk : New Iteration===========
Instance : 1

Inside foo before eval.....
j=0
k=0
clk=0
q=1
qb=0

Inside foo after eval.....
j=0
k=1
clk=0
q=1
qb=0
=============vinay_jk : New Iteration===========
Instance : 1

Inside foo before eval.....
j=0
k=1
clk=0
q=1
qb=0

Inside foo after eval.....
j=0
k=1
clk=0
q=1
qb=0
=============vinay_jk : New Iteration===========
Instance : 1

Inside foo before eval.....
j=0
k=1
clk=0
q=1
qb=0

Inside foo after eval.....
j=0
k=1
clk=1
q=0
qb=1
=============vinay_jk : New Iteration===========
Instance : 1

Inside foo before eval.....
j=0
k=1
clk=1
q=0
qb=1

Inside foo after eval.....
j=0
k=1
clk=1
q=0
qb=1
=============vinay_jk : New Iteration===========
Instance : 1

Inside foo before eval.....
j=0
k=1
clk=1
q=0
qb=1

Inside foo after eval.....
j=0
k=1
clk=1
q=0
qb=1
=============vinay_jk : New Iteration===========
Instance : 1

Inside foo before eval.....
j=0
k=1
clk=1
q=0
qb=1

Inside foo after eval.....
j=0
k=1
clk=0
q=0
qb=1
=============vinay_jk : New Iteration===========
Instance : 1

Inside foo before eval.....
j=0
k=1
clk=0
q=0
qb=1

Inside foo after eval.....
j=0
k=1
clk=1
q=0
qb=1
=============vinay_jk : New Iteration===========
Instance : 1

Inside foo before eval.....
j=0
k=1
clk=1
q=0
qb=1

Inside foo after eval.....
j=0
k=1
clk=1
q=0
qb=1
=============vinay_jk : New Iteration===========
Instance : 1

Inside foo before eval.....
j=0
k=1
clk=1
q=0
qb=1

Inside foo after eval.....
j=0
k=1
clk=1
q=0
qb=1
=============vinay_jk : New Iteration===========
Instance : 1

Inside foo before eval.....
j=0
k=1
clk=1
q=0
qb=1

Inside foo after eval.....
j=0
k=1
clk=0
q=0
qb=1
=============vinay_jk : New Iteration===========
Instance : 1

Inside foo before eval.....
j=0
k=1
clk=0
q=0
qb=1

Inside foo after eval.....
j=0
k=1
clk=1
q=0
qb=1
=============vinay_jk : New Iteration===========
Instance : 1

Inside foo before eval.....
j=0
k=1
clk=1
q=0
qb=1

Inside foo after eval.....
j=0
k=1
clk=1
q=0
qb=1
=============vinay_jk : New Iteration===========
Instance : 1

Inside foo before eval.....
j=0
k=1
clk=1
q=0
qb=1

Inside foo after eval.....
j=0
k=1
clk=1
q=0
qb=1
=============vinay_jk : New Iteration===========
Instance : 1

Inside foo before eval.....
j=0
k=1
clk=1
q=0
qb=1

Inside foo after eval.....
j=0
k=1
clk=0
q=0
qb=1
=============vinay_jk : New Iteration===========
Instance : 1

Inside foo before eval.....
j=0
k=1
clk=0
q=0
qb=1

Inside foo after eval.....
j=0
k=1
clk=1
q=0
qb=1
=============vinay_jk : New Iteration===========
Instance : 1

Inside foo before eval.....
j=0
k=1
clk=1
q=0
qb=1

Inside foo after eval.....
j=0
k=1
clk=1
q=0
qb=1
=============vinay_jk : New Iteration===========
Instance : 1

Inside foo before eval.....
j=0
k=1
clk=1
q=0
qb=1

Inside foo after eval.....
j=0
k=1
clk=1
q=0
qb=1
=============vinay_jk : New Iteration===========
Instance : 1

Inside foo before eval.....
j=0
k=1
clk=1
q=0
qb=1

Inside foo after eval.....
j=0
k=1
clk=0
q=0
qb=1
=============vinay_jk : New Iteration===========
Instance : 1

Inside foo before eval.....
j=0
k=1
clk=0
q=0
qb=1

Inside foo after eval.....
j=0
k=1
clk=1
q=0
qb=1
=============vinay_jk : New Iteration===========
Instance : 1

Inside foo before eval.....
j=0
k=1
clk=1
q=0
qb=1

Inside foo after eval.....
j=0
k=1
clk=1
q=0
qb=1
=============vinay_jk : New Iteration===========
Instance : 1

Inside foo before eval.....
j=0
k=1
clk=1
q=0
qb=1

Inside foo after eval.....
j=0
k=1
clk=1
q=0
qb=1
=============vinay_jk : New Iteration===========
Instance : 1

Inside foo before eval.....
j=0
k=1
clk=1
q=0
qb=1

Inside foo after eval.....
j=0
k=0
clk=0
q=0
qb=1
=============vinay_jk : New Iteration===========
Instance : 1

Inside foo before eval.....
j=0
k=0
clk=0
q=0
qb=1

Inside foo after eval.....
j=1
k=0
clk=0
q=0
qb=1
=============vinay_jk : New Iteration===========
Instance : 1

Inside foo before eval.....
j=1
k=0
clk=0
q=0
qb=1

Inside foo after eval.....
j=1
k=0
clk=0
q=0
qb=1
=============vinay_jk : New Iteration===========
Instance : 1

Inside foo before eval.....
j=1
k=0
clk=0
q=0
qb=1

Inside foo after eval.....
j=1
k=0
clk=1
q=1
qb=0
=============vinay_jk : New Iteration===========
Instance : 1

Inside foo before eval.....
j=1
k=0
clk=1
q=1
qb=0

Inside foo after eval.....
j=1
k=0
clk=1
q=1
qb=0
=============vinay_jk : New Iteration===========
Instance : 1

Inside foo before eval.....
j=1
k=0
clk=1
q=1
qb=0

Inside foo after eval.....
j=1
k=0
clk=1
q=1
qb=0
=============vinay_jk : New Iteration===========
Instance : 1

Inside foo before eval.....
j=1
k=0
clk=1
q=1
qb=0

Inside foo after eval.....
j=1
k=0
clk=0
q=1
qb=0
=============vinay_jk : New Iteration===========
Instance : 1

Inside foo before eval.....
j=1
k=0
clk=0
q=1
qb=0

Inside foo after eval.....
j=1
k=0
clk=1
q=1
qb=0
=============vinay_jk : New Iteration===========
Instance : 1

Inside foo before eval.....
j=1
k=0
clk=1
q=1
qb=0

Inside foo after eval.....
j=1
k=0
clk=1
q=1
qb=0
=============vinay_jk : New Iteration===========
Instance : 1

Inside foo before eval.....
j=1
k=0
clk=1
q=1
qb=0

Inside foo after eval.....
j=1
k=0
clk=1
q=1
qb=0
=============vinay_jk : New Iteration===========
Instance : 1

Inside foo before eval.....
j=1
k=0
clk=1
q=1
qb=0

Inside foo after eval.....
j=1
k=0
clk=0
q=1
qb=0
=============vinay_jk : New Iteration===========
Instance : 1

Inside foo before eval.....
j=1
k=0
clk=0
q=1
qb=0

Inside foo after eval.....
j=1
k=0
clk=1
q=1
qb=0
=============vinay_jk : New Iteration===========
Instance : 1

Inside foo before eval.....
j=1
k=0
clk=1
q=1
qb=0

Inside foo after eval.....
j=1
k=0
clk=1
q=1
qb=0
=============vinay_jk : New Iteration===========
Instance : 1

Inside foo before eval.....
j=1
k=0
clk=1
q=1
qb=0

Inside foo after eval.....
j=1
k=0
clk=1
q=1
qb=0
=============vinay_jk : New Iteration===========
Instance : 1

Inside foo before eval.....
j=1
k=0
clk=1
q=1
qb=0

Inside foo after eval.....
j=1
k=0
clk=0
q=1
qb=0
=============vinay_jk : New Iteration===========
Instance : 1

Inside foo before eval.....
j=1
k=0
clk=0
q=1
qb=0

Inside foo after eval.....
j=1
k=0
clk=1
q=1
qb=0
=============vinay_jk : New Iteration===========
Instance : 1

Inside foo before eval.....
j=1
k=0
clk=1
q=1
qb=0

Inside foo after eval.....
j=1
k=0
clk=1
q=1
qb=0
=============vinay_jk : New Iteration===========
Instance : 1

Inside foo before eval.....
j=1
k=0
clk=1
q=1
qb=0

Inside foo after eval.....
j=1
k=0
clk=1
q=1
qb=0
=============vinay_jk : New Iteration===========
Instance : 1

Inside foo before eval.....
j=1
k=0
clk=1
q=1
qb=0

Inside foo after eval.....
j=1
k=0
clk=0
q=1
qb=0
=============vinay_jk : New Iteration===========
Instance : 1

Inside foo before eval.....
j=1
k=0
clk=0
q=1
qb=0

Inside foo after eval.....
j=1
k=0
clk=1
q=1
qb=0
=============vinay_jk : New Iteration===========
Instance : 1

Inside foo before eval.....
j=1
k=0
clk=1
q=1
qb=0

Inside foo after eval.....
j=1
k=0
clk=1
q=1
qb=0
=============vinay_jk : New Iteration===========
Instance : 1

Inside foo before eval.....
j=1
k=0
clk=1
q=1
qb=0

Inside foo after eval.....
j=1
k=0
clk=1
q=1
qb=0
=============vinay_jk : New Iteration===========
Instance : 1

Inside foo before eval.....
j=1
k=0
clk=1
q=1
qb=0

Inside foo after eval.....
j=1
k=0
clk=0
q=1
qb=0
=============vinay_jk : New Iteration===========
Instance : 1

Inside foo before eval.....
j=1
k=0
clk=0
q=1
qb=0

Inside foo after eval.....
j=1
k=1
clk=0
q=1
qb=0
=============vinay_jk : New Iteration===========
Instance : 1

Inside foo before eval.....
j=1
k=1
clk=0
q=1
qb=0

Inside foo after eval.....
j=1
k=1
clk=0
q=1
qb=0
=============vinay_jk : New Iteration===========
Instance : 1

Inside foo before eval.....
j=1
k=1
clk=0
q=1
qb=0

Inside foo after eval.....
j=1
k=1
clk=1
q=0
qb=1
=============vinay_jk : New Iteration===========
Instance : 1

Inside foo before eval.....
j=1
k=1
clk=1
q=0
qb=1

Inside foo after eval.....
j=1
k=1
clk=1
q=0
qb=1
=============vinay_jk : New Iteration===========
Instance : 1

Inside foo before eval.....
j=1
k=1
clk=1
q=0
qb=1

Inside foo after eval.....
j=1
k=1
clk=1
q=0
qb=1
=============vinay_jk : New Iteration===========
Instance : 1

Inside foo before eval.....
j=1
k=1
clk=1
q=0
qb=1

Inside foo after eval.....
j=1
k=1
clk=0
q=0
qb=1
=============vinay_jk : New Iteration===========
Instance : 1

Inside foo before eval.....
j=1
k=1
clk=0
q=0
qb=1

Inside foo after eval.....
j=1
k=1
clk=1
q=1
qb=0
=============vinay_jk : New Iteration===========
Instance : 1

Inside foo before eval.....
j=1
k=1
clk=1
q=1
qb=0

Inside foo after eval.....
j=1
k=1
clk=1
q=1
qb=0
=============vinay_jk : New Iteration===========
Instance : 1

Inside foo before eval.....
j=1
k=1
clk=1
q=1
qb=0

Inside foo after eval.....
j=1
k=1
clk=1
q=1
qb=0
=============vinay_jk : New Iteration===========
Instance : 1

Inside foo before eval.....
j=1
k=1
clk=1
q=1
qb=0

Inside foo after eval.....
j=1
k=1
clk=0
q=1
qb=0
=============vinay_jk : New Iteration===========
Instance : 1

Inside foo before eval.....
j=1
k=1
clk=0
q=1
qb=0

Inside foo after eval.....
j=1
k=1
clk=1
q=0
qb=1
=============vinay_jk : New Iteration===========
Instance : 1

Inside foo before eval.....
j=1
k=1
clk=1
q=0
qb=1

Inside foo after eval.....
j=1
k=1
clk=1
q=0
qb=1
=============vinay_jk : New Iteration===========
Instance : 1

Inside foo before eval.....
j=1
k=1
clk=1
q=0
qb=1

Inside foo after eval.....
j=1
k=1
clk=1
q=0
qb=1
=============vinay_jk : New Iteration===========
Instance : 1

Inside foo before eval.....
j=1
k=1
clk=1
q=0
qb=1

Inside foo after eval.....
j=1
k=1
clk=0
q=0
qb=1
=============vinay_jk : New Iteration===========
Instance : 1

Inside foo before eval.....
j=1
k=1
clk=0
q=0
qb=1

Inside foo after eval.....
j=1
k=1
clk=1
q=1
qb=0
=============vinay_jk : New Iteration===========
Instance : 1

Inside foo before eval.....
j=1
k=1
clk=1
q=1
qb=0

Inside foo after eval.....
j=1
k=1
clk=1
q=1
qb=0
=============vinay_jk : New Iteration===========
Instance : 1

Inside foo before eval.....
j=1
k=1
clk=1
q=1
qb=0

Inside foo after eval.....
j=1
k=1
clk=1
q=1
qb=0
=============vinay_jk : New Iteration===========
Instance : 1

Inside foo before eval.....
j=1
k=1
clk=1
q=1
qb=0

Inside foo after eval.....
j=1
k=1
clk=0
q=1
qb=0
=============vinay_jk : New Iteration===========
Instance : 1

Inside foo before eval.....
j=1
k=1
clk=0
q=1
qb=0

Inside foo after eval.....
j=1
k=1
clk=1
q=0
qb=1
=============vinay_jk : New Iteration===========
Instance : 1

Inside foo before eval.....
j=1
k=1
clk=1
q=0
qb=1

Inside foo after eval.....
j=1
k=1
clk=1
q=0
qb=1

No. of Data Rows : 1171

Total analysis time (seconds) = 0.040906

Total CPU time (seconds) = 0.086 

Total DRAM available = 257855.305 MB.
DRAM currently available = 252427.355 MB.
Maximum ngspice program size =   89.516 MB.
Current ngspice program size =   11.609 MB.

Shared ngspice pages =    9.598 MB.
Text (code) pages =    6.285 MB.
Stack = 0 bytes.
Library pages =    2.949 MB.

